.subckt esdvpnp c b e w=1u l=1u area=10p nf=1
d0 e b pdio area='area*nf' pj='(w+l)*2*nf'
.ends esdvpnp

.subckt esdiovpnp c b e w=1u l=1u area=10p nf=1
d0 e b pdio_18 area='area*nf' pj='(w+l)*2*nf'
.ends esdiovpnp

.subckt esdnd PLUS MINUS
xd0 PLUS MINUS ndio_hia_mac w=w l=l nf=nf
.ends esdnd

**********************************************************************************
*Custom Compiler Version P-2019.06-SP1-2
*Thu Nov 14 13:56:39 2019

.global gnd!
.hdl '/remote/cad-rep/msip/cd/lib/widgets/P4_LATEST/widgets/va_suck/veriloga/veriloga.va'
.hdl '/remote/cad-rep/msip/cd/lib/widgets/P4_LATEST/widgets/va_suck_dif/veriloga/veriloga.va'
.hdl '/remote/cad-rep/msip/cd/lib/widgets/P4_LATEST/widgets/va_diff_clk_chk/veriloga/veriloga.va'
********************************************************************************
* Library          : widgets
* Cell             : dspfcap
* View             : schematic
* View Search List : veriloga hspice hspiceD schematic symbol
* View Stop List   :
********************************************************************************
*my_cell
.subckt dspfcap w na nb nc nd nrest ca=0.01f cb=0.01f cc=0.01f cd=0.01f
+ crest=0.01f dspfcap_modelflag=1
.if (dspfcap_modelflag==0)
caprest w nrest c=1e-18
.else
caprest w nrest c='crest'
capd w nd  c='cd'
capc w nc  c='cc'
capb w nb  c='cb'
capa w na  c='ca'
.endif
.ends dspfcap
********************************************************************************
* Library          : sc_lvt
* Cell             : sc_invx8_lvt
* View             : schematic
* View Search List : veriloga hspice hspiceD schematic symbol
* View Stop List   :
********************************************************************************
.subckt sc_invx8_lvt a gd vp z
xmp1 vp vp vp vp pch_lvt_mac l=6n nfin=4  nf=1 multi=1 ccosflag=1 ccodflag=1
+ rgflag=1 rcosflag=1 rcodflag=1 fbound=1 tsa1='6n*3.3125 + 235.125*0.001u '
+ tsb1='6n*3.3125 + 235.125*0.001u '
xmm1 z a vp vp pch_lvt_mac l=6n nfin=4  nf=1 multi=1 ccosflag=1 ccodflag=1
+ rgflag=1 rcosflag=1 rcodflag=1 fbound=1 tsa1='6n*3.3125 + 235.125*0.001u '
+ tsb1='6n*3.3125 + 235.125*0.001u '
xmp2 z vp vp vp pch_lvt_mac l=6n nfin=4  nf=1 multi=1 ccosflag=1 ccodflag=1
+ rgflag=1 rcosflag=1 rcodflag=1 fbound=1 tsa1='6n*3.3125 + 235.125*0.001u '
+ tsb1='6n*3.3125 + 235.125*0.001u '
xi8 z  vp gd gd gd gd  dspfcap ca=2.45e-16 cb=1e-18 cc=1e-18 cd=1e-18
+ crest=5.31e-16 dspfcap_modelflag='sc_par_en'
xi7 vp  gd gd gd gd gd  dspfcap ca=1e-18 cb=1e-18 cc=1e-18 cd=1e-18
+ crest=1.82e-15 dspfcap_modelflag='sc_par_en'
xi6 gd  vp gd gd gd gd  dspfcap ca=9.02e-16 cb=1e-18 cc=1e-18 cd=1e-18
+ crest=9.35e-16 dspfcap_modelflag='sc_par_en'
xi4 a  z vp gd gd gd  dspfcap ca=2.67e-16 cb=2.6e-16 cc=1e-18 cd=1e-18
+ crest=2.38e-16 dspfcap_modelflag='sc_par_en'
xmn2 z gd gd gd nch_lvt_mac l=6n nfin=3  nf=1 multi=1 ccosflag=1 ccodflag=1
+ rgflag=1 rcosflag=1 rcodflag=1 fbound=1
xmm0 z a gd gd nch_lvt_mac l=6n nfin=3  nf=1 multi=1 ccosflag=1 ccodflag=1
+ rgflag=1 rcosflag=1 rcodflag=1 fbound=1
xmn1 gd gd gd gd nch_lvt_mac l=6n nfin=3  nf=1 multi=1 ccosflag=1 ccodflag=1
+ rgflag=1 rcosflag=1 rcodflag=1 fbound=1
.ends sc_invx8_lvt
********************************************************************************
* Library          : sc_lvt
* Cell             : sc_tie_hilow_lvt
* View             : schematic
* View Search List : veriloga hspice hspiceD schematic symbol
* View Stop List   :
********************************************************************************
.subckt sc_tie_hilow_lvt gd tie_high tie_low vp
xinv_low soft_high gd vp tie_low sc_invx8_lvt
xinv_high soft_low gd vp tie_high sc_invx8_lvt
xm_dm_n1 gd gd gd gd nch_lvt_mac l=6n nfin=3  nf=1 multi=1 ccosflag=1 ccodflag=1
+ rgflag=1 rcosflag=1 rcodflag=1 fbound=1
xmmndio soft_low soft_low gd gd nch_lvt_mac l=6n nfin=3  nf=1 multi=1 ccosflag=1
+ ccodflag=1 rgflag=1 rcosflag=1 rcodflag=1 fbound=1
xmmn1 soft_low soft_high gd gd nch_lvt_mac l=6n nfin=3  nf=1 multi=1 ccosflag=1
+ ccodflag=1 rgflag=1 rcosflag=1 rcodflag=1 fbound=1
xm_dm_p1 vp vp vp vp pch_lvt_mac l=6n nfin=4  nf=1 multi=1 ccosflag=1 ccodflag=1
+ rgflag=1 rcosflag=1 rcodflag=1 fbound=1 tsa1='6n*3.3125 + 235.125*0.001u '
+ tsb1='6n*3.3125 + 235.125*0.001u '
xmmp1 soft_high soft_low vp vp pch_lvt_mac l=6n nfin=4  nf=1 multi=1 ccosflag=1
+ ccodflag=1 rgflag=1 rcosflag=1 rcodflag=1 fbound=1 tsa1='6n*3.3125 +
+ 235.125*0.001u ' tsb1='6n*3.3125 + 235.125*0.001u '
xmmpdio soft_high soft_high vp vp pch_lvt_mac l=6n nfin=4  nf=1 multi=1
+ ccosflag=1 ccodflag=1 rgflag=1 rcosflag=1 rcodflag=1 fbound=1 tsa1='6n*3.3125
+ + 235.125*0.001u ' tsb1='6n*3.3125 + 235.125*0.001u '
xi12 vp  gd gd gd gd gd  dspfcap ca=1e-18 cb=1e-18 cc=1e-18 cd=1e-18
+ crest=2.92e-15 dspfcap_modelflag='sc_par_en'
xi11 tie_low  vp tie_high gd gd gd  dspfcap ca=2.4e-16 cb=9.1e-18 cc=1e-18
+ cd=1e-18 crest=5.289e-16 dspfcap_modelflag='sc_par_en'
xi10 tie_high  vp gd gd gd gd  dspfcap ca=2.29e-16 cb=1e-18 cc=1e-18 cd=1e-18
+ crest=5.6e-16 dspfcap_modelflag='sc_par_en'
xi9 gd  vp gd gd gd gd  dspfcap ca=1.04e-15 cb=1e-18 cc=1e-18 cd=1e-18
+ crest=1.92e-15 dspfcap_modelflag='sc_par_en'
xi8 soft_low  vp soft_high tie_high gd gd  dspfcap ca=4.57e-16*sc_par_en+1e-18
+ cb=3.53e-16 cc=2.76e-16*sc_par_en+1e-18 cd=1e-18*sc_par_en+1e-18
+ crest=4.63e-16 dspfcap_modelflag=1
xi7 soft_high  vp tie_low tie_high gd gd  dspfcap ca=5.04e-16*sc_par_en+1e-18
+ cb=2.76e-16*sc_par_en+1e-18 cc=3.75e-17*sc_par_en+1e-18
+ cd=1e-18*sc_par_en+1e-18 crest=8.415e-16 dspfcap_modelflag=1
.ends sc_tie_hilow_lvt
********************************************************************************
* Library          : sc_lvt
* Cell             : sc_invx48_lvt
* View             : schematic
* View Search List : veriloga hspice hspiceD schematic symbol
* View Stop List   :
********************************************************************************
.subckt sc_invx48_lvt a gd vp z
xi8 z  vp gd gd gd gd  dspfcap ca=3.47e-16 cb=1e-18 cc=1e-18 cd=1e-18
+ crest=1.63e-15 dspfcap_modelflag='sc_par_en'
xi7 vp  gd gd gd gd gd  dspfcap ca=1e-18 cb=1e-18 cc=1e-18 cd=1e-18
+ crest=2.59e-15 dspfcap_modelflag='sc_par_en'
xi6 gd  vp gd gd gd gd  dspfcap ca=9.65e-16 cb=1e-18 cc=1e-18 cd=1e-18
+ crest=1.66e-15 dspfcap_modelflag='sc_par_en'
xi4 a  z vp gd gd gd  dspfcap ca=1.29e-15 cb=8.54e-16 cc=1e-18 cd=1e-18
+ crest=8.64e-16 dspfcap_modelflag='sc_par_en'
xmm0 z a gd gd nch_lvt_mac l=6n nfin=3  nf=6 multi=1 ccosflag=1 ccodflag=1
+ rgflag=1 rcosflag=1 rcodflag=1 fbound=1
xmn2 gd gd gd gd nch_lvt_mac l=6n nfin=3  nf=1 multi=1 ccosflag=1 ccodflag=1
+ rgflag=1 rcosflag=1 rcodflag=1 fbound=1
xmm1 z a vp vp pch_lvt_mac l=6n nfin=4  nf=6 multi=1 ccosflag=1 ccodflag=1
+ rgflag=1 rcosflag=1 rcodflag=1 fbound=1 tsa1='6n*3.3125 + 235.125*0.001u '
+ tsb1='6n*3.3125 + 235.125*0.001u '
xmp1 vp vp vp vp pch_lvt_mac l=6n nfin=4  nf=1 multi=1 ccosflag=1 ccodflag=1
+ rgflag=1 rcosflag=1 rcodflag=1 fbound=1 tsa1='6n*3.3125 + 235.125*0.001u '
+ tsb1='6n*3.3125 + 235.125*0.001u '
.ends sc_invx48_lvt
********************************************************************************
* Library          : sc_ulvt
* Cell             : sc_invx32_ulvt
* View             : schematic
* View Search List : veriloga hspice hspiceD schematic symbol
* View Stop List   :
********************************************************************************
.subckt sc_invx32_ulvt a gd vp z
xi7 z  vp gd gd gd gd  dspfcap ca=3.04e-16 cb=1e-18 cc=1e-18 cd=1e-18
+ crest=1.183e-15 dspfcap_modelflag='sc_par_en'
xi6 vp  gd gd gd gd gd  dspfcap ca=1e-18 cb=1e-18 cc=1e-18 cd=1e-18
+ crest=2.22e-15 dspfcap_modelflag='sc_par_en'
xi4 gd  vp gd gd gd gd  dspfcap ca=9.33e-16 cb=1e-18 cc=1e-18 cd=1e-18
+ crest=1.31e-15 dspfcap_modelflag='sc_par_en'
xi2 a  z vp gd gd gd  dspfcap ca=8.85e-16 cb=5.66e-16 cc=1e-18 cd=1e-18
+ crest=5.77e-16 dspfcap_modelflag='sc_par_en'
xmp1 vp vp vp vp pch_ulvt_mac l=6n nfin=4  nf=1 multi=1 ccosflag=1 ccodflag=1
+ rgflag=1 rcosflag=1 rcodflag=1 fbound=1 tsa1='6n*3.3125 + 235.125*0.001u '
+ tsb1='6n*3.3125 + 235.125*0.001u '
xmm1 z a vp vp pch_ulvt_mac l=6n nfin=4  nf=4 multi=1 ccosflag=1 ccodflag=1
+ rgflag=1 rcosflag=1 rcodflag=1 fbound=1 tsa1='6n*3.3125 + 235.125*0.001u '
+ tsb1='6n*3.3125 + 235.125*0.001u '
xmm0 z a gd gd nch_ulvt_mac l=6n nfin=3  nf=4 multi=1 ccosflag=1 ccodflag=1
+ rgflag=1 rcosflag=1 rcodflag=1 fbound=1
xmn1 gd gd gd gd nch_ulvt_mac l=6n nfin=3  nf=1 multi=1 ccosflag=1 ccodflag=1
+ rgflag=1 rcosflag=1 rcodflag=1 fbound=1
.ends sc_invx32_ulvt
********************************************************************************
* Library          : devicestack
* Cell             : dpfinulvt
* View             : schematic
* View Search List : veriloga hspice hspiceD schematic symbol
* View Stop List   :
********************************************************************************
.subckt dpfinulvt_1 d g s b
xmp1 d g s b pch_ulvt_mac l=6n nfin=4  nf=1 multi=1 ccosflag=1 ccodflag=1
+ rgflag=1 rcosflag=1 rcodflag=1 fbound=1 tsa1='6n*3.3125 + 235.125*0.001u '
+ tsb1='6n*3.3125 + 235.125*0.001u '
.ends dpfinulvt
********************************************************************************
* Library          : widgets
* Cell             : alias0
* View             : schematic
* View Search List : veriloga hspice hspiceD schematic symbol
* View Stop List   :
********************************************************************************
.subckt alias0 plus minus
ralias plus minus r=0.001
.ends alias0
********************************************************************************
* Library          : devicestack
* Cell             : dnfinulvt
* View             : schematic
* View Search List : veriloga hspice hspiceD schematic symbol
* View Stop List   :
********************************************************************************
.subckt dnfinulvt_1 d g s b
xmn1 d g s b nch_ulvt_mac l=6n nfin=3  nf=1 multi=1 ccosflag=1 ccodflag=1
+ rgflag=1 rcosflag=1 rcodflag=1 fbound=1
.ends dnfinulvt
********************************************************************************
* Library          : sc_ulvt
* Cell             : sc_dffx30_ar_nodsq_ulvt
* View             : schematic
* View Search List : veriloga hspice hspiceD schematic symbol
* View Stop List   :
********************************************************************************
.subckt sc_dffx30_ar_nodsq_ulvt ck ckb d gd qb reset_b vp
xdffx30_ar_nodsq_a ck_int d_n d_n va_suck startat='xstartsuck' edgethres=0.5 vp='xvp'
+  datadir=0 ckdir=1 endat=1
xdffx30_ar_nodsq_b ckb_int n2 n2 va_suck startat='xstartsuck' edgethres=0.5 vp='xvp'
+  datadir=0 ckdir=1 endat=1
xmm100 net355 reset_b gd gd nch_ulvt_mac l=6n nfin=3  nf=1 multi=1 ccosflag=1
+ ccodflag=1 rgflag=1 rcosflag=1 rcodflag=1 fbound=1
xmm98 n3 kp1 net371 gd nch_ulvt_mac l=6n nfin=3  nf=1 multi=1 ccosflag=1
+ ccodflag=1 rgflag=1 rcosflag=1 rcodflag=1 fbound=1
xmm18b set reset_b gd gd nch_ulvt_mac l=6n nfin=3  nf=1 multi=1 ccosflag=1
+ ccodflag=1 rgflag=1 rcosflag=1 rcodflag=1 fbound=1
xmm99 net348 ck gd gd nch_ulvt_mac l=6n nfin=3  nf=1 multi=1 ccosflag=1
+ ccodflag=1 rgflag=1 rcosflag=1 rcodflag=1 fbound=1
xmm29 n2 n1 gd gd nch_ulvt_mac l=6n nfin=3  nf=3 multi=1 ccosflag=1 ccodflag=1
+ rgflag=1 rcosflag=1 rcodflag=1 fbound=1
xmm0 net371 ckb gd gd nch_ulvt_mac l=6n nfin=3  nf=1 multi=1 ccosflag=1
+ ccodflag=1 rgflag=1 rcosflag=1 rcodflag=1 fbound=1
xmm91 n1 kp net348 gd nch_ulvt_mac l=6n nfin=3  nf=1 multi=1 ccosflag=1
+ ccodflag=1 rgflag=1 rcosflag=1 rcodflag=1 fbound=1
xmm3 n1 set gd gd nch_ulvt_mac l=6n nfin=3  nf=1 multi=1 ccosflag=1 ccodflag=1
+ rgflag=1 rcosflag=1 rcodflag=1 fbound=1
xmm91b kp1 set gd gd nch_ulvt_mac l=6n nfin=3  nf=1 multi=1 ccosflag=1
+ ccodflag=1 rgflag=1 rcosflag=1 rcodflag=1 fbound=1
xmm31 qb n3 gd gd nch_ulvt_mac l=6n nfin=3  nf=3 multi=1 ccosflag=1 ccodflag=1
+ rgflag=1 rcosflag=1 rcodflag=1 fbound=1
xmm6 d_n ckb n1 gd nch_ulvt_mac l=6n nfin=3  nf=3 multi=1 ccosflag=1 ccodflag=1
+ rgflag=1 rcosflag=1 rcodflag=1 fbound=1
xmm101 kp1 n3 gd gd nch_ulvt_mac l=6n nfin=3  nf=1 multi=1 ccosflag=1 ccodflag=1
+ rgflag=1 rcosflag=1 rcodflag=1 fbound=1
xmm32 n2 ck n3 gd nch_ulvt_mac l=6n nfin=3  nf=2 multi=1 ccosflag=1 ccodflag=1
+ rgflag=1 rcosflag=1 rcodflag=1 fbound=1
xmm95 kp n1 net355 gd nch_ulvt_mac l=6n nfin=3  nf=1 multi=1 ccosflag=1
+ ccodflag=1 rgflag=1 rcosflag=1 rcodflag=1 fbound=1
xmm104 d_n d gd gd nch_ulvt_mac l=6n nfin=3  nf=2 multi=1 ccosflag=1 ccodflag=1
+ rgflag=1 rcosflag=1 rcodflag=1 fbound=1
xmp2 n3 reset_b vp vp pch_ulvt_mac l=6n nfin=4  nf=1 multi=1 ccosflag=1
+ ccodflag=1 rgflag=1 rcosflag=1 rcodflag=1 fbound=1 tsa1='6n*3.3125 +
+ 235.125*0.001u ' tsb1='6n*3.3125 + 235.125*0.001u '
xmm17b set reset_b vp vp pch_ulvt_mac l=6n nfin=4  nf=1 multi=1 ccosflag=1
+ ccodflag=1 rgflag=1 rcosflag=1 rcodflag=1 fbound=1 tsa1='6n*3.3125 +
+ 235.125*0.001u ' tsb1='6n*3.3125 + 235.125*0.001u '
xmm103 net372 ck vp vp pch_ulvt_mac l=6n nfin=4  nf=1 multi=1 ccosflag=1
+ ccodflag=1 rgflag=1 rcosflag=1 rcodflag=1 fbound=1 tsa1='6n*3.3125 +
+ 235.125*0.001u ' tsb1='6n*3.3125 + 235.125*0.001u '
xmm10b kp reset_b vp vp pch_ulvt_mac l=6n nfin=4  nf=1 multi=1 ccosflag=1
+ ccodflag=1 rgflag=1 rcosflag=1 rcodflag=1 fbound=1 tsa1='6n*3.3125 +
+ 235.125*0.001u ' tsb1='6n*3.3125 + 235.125*0.001u '
xmm105 d_n d dd_n vp pch_ulvt_mac l=6n nfin=4  nf=3 multi=1 ccosflag=1
+ ccodflag=1 rgflag=1 rcosflag=1 rcodflag=1 fbound=1 tsa1='6n*3.3125 +
+ 235.125*0.001u ' tsb1='6n*3.3125 + 235.125*0.001u '
xmm30 n2 n1 vp vp pch_ulvt_mac l=6n nfin=4  nf=3 multi=1 ccosflag=1 ccodflag=1
+ rgflag=1 rcosflag=1 rcodflag=1 fbound=1 tsa1='6n*3.3125 + 235.125*0.001u '
+ tsb1='6n*3.3125 + 235.125*0.001u '
xmm1 n3 kp1 net372 vp pch_ulvt_mac l=6n nfin=4  nf=1 multi=1 ccosflag=1
+ ccodflag=1 rgflag=1 rcosflag=1 rcodflag=1 fbound=1 tsa1='6n*3.3125 +
+ 235.125*0.001u ' tsb1='6n*3.3125 + 235.125*0.001u '
xmm33 qb n3 vp vp pch_ulvt_mac l=6n nfin=4  nf=3 multi=1 ccosflag=1 ccodflag=1
+ rgflag=1 rcosflag=1 rcodflag=1 fbound=1 tsa1='6n*3.3125 + 235.125*0.001u '
+ tsb1='6n*3.3125 + 235.125*0.001u '
xmm28 d_n ck n1 vp pch_ulvt_mac l=6n nfin=4  nf=3 multi=1 ccosflag=1 ccodflag=1
+ rgflag=1 rcosflag=1 rcodflag=1 fbound=1 tsa1='6n*3.3125 + 235.125*0.001u '
+ tsb1='6n*3.3125 + 235.125*0.001u '
xmm34 n2 ckb n3 vp pch_ulvt_mac l=6n nfin=4  nf=2 multi=1 ccosflag=1 ccodflag=1
+ rgflag=1 rcosflag=1 rcodflag=1 fbound=1 tsa1='6n*3.3125 + 235.125*0.001u '
+ tsb1='6n*3.3125 + 235.125*0.001u '
xmm15b dd_n set vp vp pch_ulvt_mac l=6n nfin=4  nf=3 multi=1 ccosflag=1
+ ccodflag=1 rgflag=1 rcosflag=1 rcodflag=1 fbound=1 tsa1='6n*3.3125 +
+ 235.125*0.001u ' tsb1='6n*3.3125 + 235.125*0.001u '
xmm92 kp n1 vp vp pch_ulvt_mac l=6n nfin=4  nf=1 multi=1 ccosflag=1 ccodflag=1
+ rgflag=1 rcosflag=1 rcodflag=1 fbound=1 tsa1='6n*3.3125 + 235.125*0.001u '
+ tsb1='6n*3.3125 + 235.125*0.001u '
xmm93b net349 ckb vp vp pch_ulvt_mac l=6n nfin=4  nf=1 multi=1 ccosflag=1
+ ccodflag=1 rgflag=1 rcosflag=1 rcodflag=1 fbound=1 tsa1='6n*3.3125 +
+ 235.125*0.001u ' tsb1='6n*3.3125 + 235.125*0.001u '
xmm102 kp1 n3 net361 vp pch_ulvt_mac l=6n nfin=4  nf=1 multi=1 ccosflag=1
+ ccodflag=1 rgflag=1 rcosflag=1 rcodflag=1 fbound=1 tsa1='6n*3.3125 +
+ 235.125*0.001u ' tsb1='6n*3.3125 + 235.125*0.001u '
xmm93 n1 kp net349 vp pch_ulvt_mac l=6n nfin=4  nf=1 multi=1 ccosflag=1
+ ccodflag=1 rgflag=1 rcosflag=1 rcodflag=1 fbound=1 tsa1='6n*3.3125 +
+ 235.125*0.001u ' tsb1='6n*3.3125 + 235.125*0.001u '
xmm2 net361 set vp vp pch_ulvt_mac l=6n nfin=4  nf=1 multi=1 ccosflag=1
+ ccodflag=1 rgflag=1 rcosflag=1 rcodflag=1 fbound=1 tsa1='6n*3.3125 +
+ 235.125*0.001u ' tsb1='6n*3.3125 + 235.125*0.001u '
xdump4 kp1 vp vp vp dpfinulvt_1
xdffx30_ar_nodsq_dif_b vp ckb_int ck_int n3 n2 va_suck_dif startat='xstartsuck'
+ edgethres=0.5 vp='xvp' datadir=0 ckdir=1 endat=1
xdffx30_ar_nodsq_dif_a vp ck_int ckb_int n1 d_n va_suck_dif startat='xstartsuck'
+  edgethres=0.5 vp='xvp' datadir=0 ckdir=1 endat=1
xdiff_chk_dffx30_nodsq_ar ck_int ckb_int vp va_diff_clk_chk endat=999m startat='xstartsuck'
.NODESET V(n1)=xrand1
.NODESET V(n3)=xrand2
xi30 ck ck_int alias0
xi3 ckb_int ckb alias0
.PARAM xrand1=aunif(0.375, 0.375)
.PARAM xrand2=aunif(0.375, 0.375)
xdumn6 gd gd gd gd dnfinulvt_1
xdumn9 kp gd gd gd dnfinulvt_1
xdumn10 gd gd gd gd dnfinulvt_1
xi12 net355  n1 reset_b kp gd gd  dspfcap ca=9.56e-17
+ cb=9.25e-17*sc_par_en+1e-18 cc=6.56e-18 cd=1e-18*sc_par_en+1e-18
+ crest=1.53e-17 dspfcap_modelflag=1
xi11 net349  vp n1 reset_b gd gd  dspfcap ca=1e-17*sc_par_en+1e-18 cb=4.99e-18
+ cc=2.36e-18*sc_par_en+1e-18 cd=1e-18*sc_par_en+1e-18 crest=9.42e-17
+ dspfcap_modelflag=1
xi17 ckb  n1 d_n n3 n2 gd  dspfcap ca=2.94e-16 cb=2.86e-16 cc=2.1e-16
+ cd=2.03e-16 crest=9.87e-16 dspfcap_modelflag='sc_par_en'
xi15 net372  kp1 vp n3 net371 gd  dspfcap ca=9.48e-17 cb=1.1e-17*sc_par_en+1e-18
+ cc=5.49e-18 cd=1.5e-18 crest=9.52e-17 dspfcap_modelflag=1
xi123 n3  vp qb reset_b set gd  dspfcap ca=7.46e-16*sc_par_en+1e-18
+ cb=5.74e-16*sc_par_en+1e-18 cc=9.43e-17*sc_par_en+1e-18 cd=2.77e-17
+ crest=6.91e-16 dspfcap_modelflag=1
xi16 ck  n1 d_n n3 n2 gd  dspfcap ca=2.99e-16 cb=2.84e-16 cc=2.52e-16
+ cd=2.09e-16 crest=8.76e-16 dspfcap_modelflag='sc_par_en'
xi8 ck_int  set kp1 vp net361 gd  dspfcap ca=1.32e-17 cb=7.03e-18
+ cc=6.21e-18*sc_par_en+1e-18 cd=2.4e-18 crest=1.96e-18 dspfcap_modelflag=1
xi13 net361  n3 set vp kp1 gd  dspfcap ca=9.36e-17 cb=9.36e-17
+ cc=1.07e-17*sc_par_en+1e-18 cd=6.83e-18 crest=1e-18 dspfcap_modelflag=1
xi9 ckb_int  set kp1 n3 gd gd  dspfcap ca=6.8e-18 cb=2.57e-18 cc=1.83e-18
+ cd=1e-18*sc_par_en+1e-18 crest=1.4e-18 dspfcap_modelflag=1
xi14 net371  gd gd gd gd gd  dspfcap ca=1e-18*sc_par_en+1e-18
+ cb=1e-18*sc_par_en+1e-18 cc=1e-18*sc_par_en+1e-18 cd=1e-18*sc_par_en+1e-18
+ crest=1.09e-16 dspfcap_modelflag=1
xi10 net348  kp n1 net349 gd gd  dspfcap ca=9.76e-17 cb=4.97e-18 cc=1.42e-18
+ cd=1e-18*sc_par_en+1e-18 crest=1.08e-16 dspfcap_modelflag=1
xi18 d  vp reset_b gd gd gd  dspfcap ca=9.54e-17 cb=4.87e-18 cc=1e-18 cd=1e-18
+ crest=2.78e-16 dspfcap_modelflag='sc_par_en'
xi19 gd  vp gd gd gd gd  dspfcap ca=1.34e-15 cb=1e-18 cc=1e-18 cd=1e-18
+ crest=4.34e-15 dspfcap_modelflag='sc_par_en'
xi20 qb  vp gd gd gd gd  dspfcap ca=2.25e-16 cb=1e-18 cc=1e-18 cd=1e-18
+ crest=2.63e-16 dspfcap_modelflag='sc_par_en'
xi21 reset_b  vp gd gd gd gd  dspfcap ca=4.63e-16 cb=1e-18 cc=1e-18 cd=1e-18
+ crest=3.16e-16 dspfcap_modelflag='sc_par_en'
xi22 vp  gd gd gd gd gd  dspfcap ca=1e-18 cb=1e-18 cc=1e-18 cd=1e-18
+ crest=2.22e-15 dspfcap_modelflag='sc_par_en'
xi255 set  vp reset_b d qb gd  dspfcap ca=7.36e-16*sc_par_en+1e-18
+ cb=2.27e-16*sc_par_en+1e-18 cc=5.61e-17*sc_par_en+1e-18
+ cd=4.87e-18*sc_par_en+1e-18 crest=6.46e-16 dspfcap_modelflag=1
xi121 n1  vp set d_n d gd  dspfcap ca=5.52e-16*sc_par_en+1e-18 cb=1.14e-16
+ cc=4.9e-17 cd=1.73e-17*sc_par_en+1e-18 crest=7.77e-16 dspfcap_modelflag=1
xi256 kp1  n3 vp set net371 gd  dspfcap ca=3.94e-16 cb=2.32e-16*sc_par_en+1e-18
+ cc=1.12e-16 cd=9.84e-17 crest=1.72e-16 dspfcap_modelflag=1
xi254 kp  n1 vp reset_b net349 gd  dspfcap ca=3.88e-16
+ cb=1.31e-16*sc_par_en+1e-18 cc=9.76e-17*sc_par_en+1e-18 cd=9.5e-17
+ crest=2.84e-16 dspfcap_modelflag=1
xi225 n2  n1 vp n3 set gd  dspfcap ca=5.64e-16 cb=2.42e-16*sc_par_en+1e-18
+ cc=4.99e-17 cd=6.36e-18 crest=2.46e-16 dspfcap_modelflag=1
xi252 dd_n  set d reset_b vp gd  dspfcap ca=3.02e-16 cb=2.91e-16*sc_par_en+1e-18
+ cc=4.97e-17*sc_par_en+1e-18 cd=4.36e-17*sc_par_en+1e-18 crest=7.8e-18
+ dspfcap_modelflag=1
xi224 d_n  d vp set dd_n gd  dspfcap ca=5.15e-16*sc_par_en+1e-18
+ cb=1.13e-16*sc_par_en+1e-18 cc=1.41e-17 cd=1.39e-17 crest=2.55e-16
+ dspfcap_modelflag=1
.ends sc_dffx30_ar_nodsq_ulvt
********************************************************************************
* Library          : sc_ulvt
* Cell             : sc_dffx30_ar_ulvt
* View             : schematic
* View Search List : veriloga hspice hspiceD schematic symbol
* View Stop List   :
********************************************************************************
.subckt sc_dffx30_ar_ulvt ck ckb d gd qb reset_b vp
xdffx30_ar_a ckd_int d_n d_n va_suck startat='xstartsuck' edgethres=0.5 vp='xvp'
+  datadir=0 ckdir=1 endat=1
xdffx30_ar_b ckz_int n2 n2 va_suck startat='xstartsuck' edgethres=0.5 vp='xvp'
+ datadir=0 ckdir=1 endat=1
xdump4 ckz vp vp vp dpfinulvt_1
xi123 n3  vp qb reset_b set gd  dspfcap ca=7.26e-16*sc_par_en+1e-18
+ cb=5.74e-16*sc_par_en+1e-18 cc=9.42e-17*sc_par_en+1e-18 cd=2.61e-17
+ crest=8.82e-16 dspfcap_modelflag=1
xi16 ckd  n1 d_n n3 n2 gd  dspfcap ca=2.91e-16 cb=2.84e-16 cc=2.69e-16
+ cd=2.31e-16 crest=1.15e-15 dspfcap_modelflag=1
xi44 ckz  vp ckd n1 d_n gd  dspfcap ca=4.49e-16*sc_par_en+1e-18 cb=2.94e-16
+ cc=2.93e-16 cd=2.86e-16 crest=1.76e-15 dspfcap_modelflag=1
xi30 ckd_int  vp gd gd gd gd  dspfcap ca=6.11e-18*sc_par_en+1e-18
+ cb=1e-18*sc_par_en+1e-18 cc=1e-18*sc_par_en+1e-18 cd=1e-18*sc_par_en+1e-18
+ crest=1.16e-17 dspfcap_modelflag=1
xi31 ckz_int  ckd vp ckb gd gd  dspfcap ca=6.48e-18 cb=1.43e-18*sc_par_en+1e-18
+ cc=1.26e-18*sc_par_en+1e-18 cd=1e-18*sc_par_en+1e-18 crest=2.3e-19
+ dspfcap_modelflag=1
xi32 net348  kp n1 net349 gd gd  dspfcap ca=9.76e-17 cb=4.95e-18 cc=1.42e-18
+ cd=1e-18*sc_par_en+1e-18 crest=1.08e-16 dspfcap_modelflag=1
xi33 net349  vp n1 reset_b gd gd  dspfcap ca=1.05e-17*sc_par_en+1e-18 cb=5e-18
+ cc=2.24e-18*sc_par_en+1e-18 cd=1e-18*sc_par_en+1e-18 crest=9.38e-17
+ dspfcap_modelflag=1
xi255 set  vp reset_b d qb gd  dspfcap ca=7.53e-16*sc_par_en+1e-18
+ cb=2.27e-16*sc_par_en+1e-18 cc=5.6e-17*sc_par_en+1e-18
+ cd=1.13e-17*sc_par_en+1e-18 crest=7.17e-16 dspfcap_modelflag=1
xi34 net355  n1 reset_b kp gd gd  dspfcap ca=9.56e-17
+ cb=9.25e-17*sc_par_en+1e-18 cc=6.56e-18 cd=1e-18*sc_par_en+1e-18
+ crest=1.53e-17 dspfcap_modelflag=1
xi35 net361  n3 set vp gd gd  dspfcap ca=9.36e-17 cb=9.29e-17
+ cc=1.01e-17*sc_par_en+1e-18 cd=1e-18*sc_par_en+1e-18 crest=1.04e-17
+ dspfcap_modelflag=1
xi36 net371  gd gd gd gd gd  dspfcap ca=1e-18*sc_par_en+1e-18
+ cb=1e-18*sc_par_en+1e-18 cc=1e-18*sc_par_en+1e-18 cd=1e-18*sc_par_en+1e-18
+ crest=1.1e-16 dspfcap_modelflag=1
xi37 net372  vp n3 set net371 gd  dspfcap ca=1e-17*sc_par_en+1e-18 cb=4.85e-18
+ cc=2.69e-18 cd=1.42e-18 crest=1.9e-16 dspfcap_modelflag=1
xi38 net497  set d reset_b vp gd  dspfcap ca=3.02e-16
+ cb=2.91e-16*sc_par_en+1e-18 cc=4.97e-17*sc_par_en+1e-18
+ cd=4.38e-17*sc_par_en+1e-18 crest=7.7e-18 dspfcap_modelflag=1
xi39 ck  vp ckb gd gd gd  dspfcap ca=3.35e-16 cb=2.12e-17 cc=1e-18 cd=1e-18
+ crest=5.97e-16 dspfcap_modelflag='sc_par_en'
xi40 ckb  vp gd gd gd gd  dspfcap ca=2.37e-16 cb=1e-18 cc=1e-18 cd=1e-18
+ crest=6.95e-16 dspfcap_modelflag='sc_par_en'
xi41 d  vp reset_b gd gd gd  dspfcap ca=9.55e-17 cb=4.86e-18 cc=1e-18 cd=1e-18
+ crest=2.78e-16 dspfcap_modelflag='sc_par_en'
xi42 gd  vp gd gd gd gd  dspfcap ca=1.63e-15 cb=1e-18 cc=1e-18 cd=1e-18
+ crest=4.91e-15 dspfcap_modelflag='sc_par_en'
xi43 qb  vp gd gd gd gd  dspfcap ca=2.25e-16 cb=1e-18 cc=1e-18 cd=1e-18
+ crest=2.67e-16 dspfcap_modelflag='sc_par_en'
xi45 reset_b  vp gd gd gd gd  dspfcap ca=4.66e-16 cb=1e-18 cc=1e-18 cd=1e-18
+ crest=3.13e-16 dspfcap_modelflag='sc_par_en'
xi46 vp  gd gd gd gd gd  dspfcap ca=1e-18 cb=1e-18 cc=1e-18 cd=1e-18
+ crest=2.37e-15 dspfcap_modelflag='sc_par_en'
xi121 n1  vp set d_n d gd  dspfcap ca=4.53e-16*sc_par_en+1e-18 cb=1.13e-16
+ cc=4.89e-17 cd=1.74e-17*sc_par_en+1e-18 crest=6.61e-16 dspfcap_modelflag=1
xi256 kp1  n3 vp set net371 gd  dspfcap ca=3.97e-16 cb=2.47e-16*sc_par_en+1e-18
+ cc=1e-16 cd=9.8e-17 crest=3.08e-16 dspfcap_modelflag=1
xi254 kp  n1 vp reset_b net349 gd  dspfcap ca=3.9e-16 cb=1.3e-16*sc_par_en+1e-18
+ cc=9.76e-17*sc_par_en+1e-18 cd=9.5e-17 crest=2.83e-16 dspfcap_modelflag=1
xi225 n2  n1 vp n3 set gd  dspfcap ca=3.77e-16 cb=1.19e-16*sc_par_en+1e-18
+ cc=3.29e-17 cd=1.54e-17 crest=3.25e-16 dspfcap_modelflag=1
xi224 d_n  d vp set net497 gd  dspfcap ca=5.15e-16*sc_par_en+1e-18
+ cb=1.13e-16*sc_par_en+1e-18 cc=1.41e-17 cd=1.38e-17 crest=2.55e-16
+ dspfcap_modelflag=1
xmm100 net355 reset_b gd gd nch_ulvt_mac l=6n nfin=3  nf=1 multi=1 ccosflag=1
+ ccodflag=1 rgflag=1 rcosflag=1 rcodflag=1 fbound=1
xmm98 n3 kp1 net371 gd nch_ulvt_mac l=6n nfin=3  nf=1 multi=1 ccosflag=1
+ ccodflag=1 rgflag=1 rcosflag=1 rcodflag=1 fbound=1
xmm18b set reset_b gd gd nch_ulvt_mac l=6n nfin=3  nf=1 multi=1 ccosflag=1
+ ccodflag=1 rgflag=1 rcosflag=1 rcodflag=1 fbound=1
xmm99 net348 ckd gd gd nch_ulvt_mac l=6n nfin=3  nf=1 multi=1 ccosflag=1
+ ccodflag=1 rgflag=1 rcosflag=1 rcodflag=1 fbound=1
xmn14 vp ckb ckz gd nch_ulvt_mac l=6n nfin=3  nf=1 multi=1 ccosflag=1 ccodflag=1
+ rgflag=1 rcosflag=1 rcodflag=1 fbound=1
xmm29 n2 n1 gd gd nch_ulvt_mac l=6n nfin=3  nf=2 multi=1 ccosflag=1 ccodflag=1
+ rgflag=1 rcosflag=1 rcodflag=1 fbound=1
xmm0 net371 ckz gd gd nch_ulvt_mac l=6n nfin=3  nf=1 multi=1 ccosflag=1
+ ccodflag=1 rgflag=1 rcosflag=1 rcodflag=1 fbound=1
xmn17 ckd ckb gd gd nch_ulvt_mac l=6n nfin=3  nf=1 multi=1 ccosflag=1 ccodflag=1
+ rgflag=1 rcosflag=1 rcodflag=1 fbound=1
xmn16 vp ck ckd gd nch_ulvt_mac l=6n nfin=3  nf=1 multi=1 ccosflag=1 ccodflag=1
+ rgflag=1 rcosflag=1 rcodflag=1 fbound=1
xmn44 ckz ck gd gd nch_ulvt_mac l=6n nfin=3  nf=1 multi=1 ccosflag=1 ccodflag=1
+ rgflag=1 rcosflag=1 rcodflag=1 fbound=1
xmm91 n1 kp net348 gd nch_ulvt_mac l=6n nfin=3  nf=1 multi=1 ccosflag=1
+ ccodflag=1 rgflag=1 rcosflag=1 rcodflag=1 fbound=1
xmm3 n1 set gd gd nch_ulvt_mac l=6n nfin=3  nf=1 multi=1 ccosflag=1 ccodflag=1
+ rgflag=1 rcosflag=1 rcodflag=1 fbound=1
xmm91b kp1 set gd gd nch_ulvt_mac l=6n nfin=3  nf=1 multi=1 ccosflag=1
+ ccodflag=1 rgflag=1 rcosflag=1 rcodflag=1 fbound=1
xmm31 qb n3 gd gd nch_ulvt_mac l=6n nfin=3  nf=3 multi=1 ccosflag=1 ccodflag=1
+ rgflag=1 rcosflag=1 rcodflag=1 fbound=1
xmm6 d_n ckz n1 gd nch_ulvt_mac l=6n nfin=3  nf=3 multi=1 ccosflag=1 ccodflag=1
+ rgflag=1 rcosflag=1 rcodflag=1 fbound=1
xmm101 kp1 n3 gd gd nch_ulvt_mac l=6n nfin=3  nf=1 multi=1 ccosflag=1 ccodflag=1
+ rgflag=1 rcosflag=1 rcodflag=1 fbound=1
xmm32 n2 ckd n3 gd nch_ulvt_mac l=6n nfin=3  nf=2 multi=1 ccosflag=1 ccodflag=1
+ rgflag=1 rcosflag=1 rcodflag=1 fbound=1
xmm95 kp n1 net355 gd nch_ulvt_mac l=6n nfin=3  nf=1 multi=1 ccosflag=1
+ ccodflag=1 rgflag=1 rcosflag=1 rcodflag=1 fbound=1
xmm104 d_n d gd gd nch_ulvt_mac l=6n nfin=3  nf=2 multi=1 ccosflag=1 ccodflag=1
+ rgflag=1 rcosflag=1 rcodflag=1 fbound=1
xdffx30_ar_dif_b vp ckz_int ckd_int n3 n2 va_suck_dif startat='xstartsuck'
+ edgethres=0.5 vp='xvp' datadir=0 ckdir=1 endat=1
xdffx30_ar_dif_a vp ckd_int ckz_int n1 d_n va_suck_dif startat='xstartsuck'
+ edgethres=0.5 vp='xvp' datadir=0 ckdir=1 endat=1
xdiff_chk_dffx30_ar ckd_int ckz_int vp va_diff_clk_chk endat=999m startat='xstartsuck'
.NODESET V(n1)=xrand1
.NODESET V(n3)=xrand2
x_ckz_int ckz_int ckz alias0
x_ckd_int ckd ckd_int alias0
.PARAM xrand1=aunif(0.375, 0.375)
.PARAM xrand2=aunif(0.375, 0.375)
xdumn10 gd gd ckz gd dnfinulvt_1
xdumn9 kp gd gd gd dnfinulvt_1
xdumn6 gd gd gd gd dnfinulvt_1
xmp2 n3 reset_b vp vp pch_ulvt_mac l=6n nfin=4  nf=1 multi=1 ccosflag=1
+ ccodflag=1 rgflag=1 rcosflag=1 rcodflag=1 fbound=1 tsa1='6n*3.3125 +
+ 235.125*0.001u ' tsb1='6n*3.3125 + 235.125*0.001u '
xmm17b set reset_b vp vp pch_ulvt_mac l=6n nfin=4  nf=1 multi=1 ccosflag=1
+ ccodflag=1 rgflag=1 rcosflag=1 rcodflag=1 fbound=1 tsa1='6n*3.3125 +
+ 235.125*0.001u ' tsb1='6n*3.3125 + 235.125*0.001u '
xmm103 net372 ckd vp vp pch_ulvt_mac l=6n nfin=4  nf=1 multi=1 ccosflag=1
+ ccodflag=1 rgflag=1 rcosflag=1 rcodflag=1 fbound=1 tsa1='6n*3.3125 +
+ 235.125*0.001u ' tsb1='6n*3.3125 + 235.125*0.001u '
xmm10b kp reset_b vp vp pch_ulvt_mac l=6n nfin=4  nf=1 multi=1 ccosflag=1
+ ccodflag=1 rgflag=1 rcosflag=1 rcodflag=1 fbound=1 tsa1='6n*3.3125 +
+ 235.125*0.001u ' tsb1='6n*3.3125 + 235.125*0.001u '
xmp15 gd ckb ckz vp pch_ulvt_mac l=6n nfin=4  nf=1 multi=1 ccosflag=1 ccodflag=1
+ rgflag=1 rcosflag=1 rcodflag=1 fbound=1 tsa1='6n*3.3125 + 235.125*0.001u '
+ tsb1='6n*3.3125 + 235.125*0.001u '
xmm30 n2 n1 vp vp pch_ulvt_mac l=6n nfin=4  nf=2 multi=1 ccosflag=1 ccodflag=1
+ rgflag=1 rcosflag=1 rcodflag=1 fbound=1 tsa1='6n*3.3125 + 235.125*0.001u '
+ tsb1='6n*3.3125 + 235.125*0.001u '
xmm1 n3 kp1 net372 vp pch_ulvt_mac l=6n nfin=4  nf=1 multi=1 ccosflag=1
+ ccodflag=1 rgflag=1 rcosflag=1 rcodflag=1 fbound=1 tsa1='6n*3.3125 +
+ 235.125*0.001u ' tsb1='6n*3.3125 + 235.125*0.001u '
xmp17 ckd ckb vp vp pch_ulvt_mac l=6n nfin=4  nf=1 multi=1 ccosflag=1 ccodflag=1
+ rgflag=1 rcosflag=1 rcodflag=1 fbound=1 tsa1='6n*3.3125 + 235.125*0.001u '
+ tsb1='6n*3.3125 + 235.125*0.001u '
xmp16 gd ck ckd vp pch_ulvt_mac l=6n nfin=4  nf=1 multi=1 ccosflag=1 ccodflag=1
+ rgflag=1 rcosflag=1 rcodflag=1 fbound=1 tsa1='6n*3.3125 + 235.125*0.001u '
+ tsb1='6n*3.3125 + 235.125*0.001u '
xmp44 ckz ck vp vp pch_ulvt_mac l=6n nfin=4  nf=1 multi=1 ccosflag=1 ccodflag=1
+ rgflag=1 rcosflag=1 rcodflag=1 fbound=1 tsa1='6n*3.3125 + 235.125*0.001u '
+ tsb1='6n*3.3125 + 235.125*0.001u '
xmm33 qb n3 vp vp pch_ulvt_mac l=6n nfin=4  nf=3 multi=1 ccosflag=1 ccodflag=1
+ rgflag=1 rcosflag=1 rcodflag=1 fbound=1 tsa1='6n*3.3125 + 235.125*0.001u '
+ tsb1='6n*3.3125 + 235.125*0.001u '
xmm15b net497 set vp vp pch_ulvt_mac l=6n nfin=4  nf=3 multi=1 ccosflag=1
+ ccodflag=1 rgflag=1 rcosflag=1 rcodflag=1 fbound=1 tsa1='6n*3.3125 +
+ 235.125*0.001u ' tsb1='6n*3.3125 + 235.125*0.001u '
xmm28 d_n ckd n1 vp pch_ulvt_mac l=6n nfin=4  nf=3 multi=1 ccosflag=1 ccodflag=1
+ rgflag=1 rcosflag=1 rcodflag=1 fbound=1 tsa1='6n*3.3125 + 235.125*0.001u '
+ tsb1='6n*3.3125 + 235.125*0.001u '
xmm105 d_n d net497 vp pch_ulvt_mac l=6n nfin=4  nf=3 multi=1 ccosflag=1
+ ccodflag=1 rgflag=1 rcosflag=1 rcodflag=1 fbound=1 tsa1='6n*3.3125 +
+ 235.125*0.001u ' tsb1='6n*3.3125 + 235.125*0.001u '
xmm34 n2 ckz n3 vp pch_ulvt_mac l=6n nfin=4  nf=2 multi=1 ccosflag=1 ccodflag=1
+ rgflag=1 rcosflag=1 rcodflag=1 fbound=1 tsa1='6n*3.3125 + 235.125*0.001u '
+ tsb1='6n*3.3125 + 235.125*0.001u '
xmm92 kp n1 vp vp pch_ulvt_mac l=6n nfin=4  nf=1 multi=1 ccosflag=1 ccodflag=1
+ rgflag=1 rcosflag=1 rcodflag=1 fbound=1 tsa1='6n*3.3125 + 235.125*0.001u '